SOLUTION_MASTER_SPECIES
H        H+             -1.     H               1.008
H(1)     H+             -1.     0.0
E        e-             0.0     0.0             0.0
O        H2O            0.0     O               16.00
O(-2)    H2O            0.0     0.0
Mg       Mg+2           0.0     Mg              24.305
Na       Na+            0.0     Na              22.9898
S        SO4-2          0.0     SO4             32.064
 
SOLUTION_SPECIES
e- = e-		
H2O = H2O	
H+ = H+		
	-dw	 9.31e-9	
	-HKF 0 0 0 0 0 0 0 1
Mg+2 = Mg+2	
	-dw	 0.705e-9
	-Vm  -1.410  -8.6  11.13  -2.39  1.332  5.5  1.29  -32.9  -5.86e-3  1 	
	-HKF -0.344  -35.98e2 35.10 -10e4 87.03 -24.65e4 6.43e5 1 # Thermoddem / J
Na+ = Na+	
	-dw	 1.33e-9
	-Vm   2.28  -4.38  -4.1  -0.586  0.09  4  0.3  52  -3.33e-3  0.566 
# for calculating densities (rho) when I > 3...
	# -Vm   2.28  -4.38  -4.1  -0.586  0.09  4  0.3  52  -3.33e-3  0.45	
	-HKF 0.769  -956 13.62 -11.41e4 76.07 -12.47e4 1.38e5 1 # Thermoddem / J
SO4-2 = SO4-2	
	-dw	 1.07e-9
	-Vm  -7.77  43.17  141.1  -42.45  3.794  0  4.97  26.5  -5.77e-2  0.45
	-HKF 3.473 -8.30e2 -25.99 -11.28e4 6.86 -75.30e4 13.16e5 1

# aqueous species
H2O = OH- + H+
	-analytic  293.29227  0.1360833  -10576.913  -123.73158  0  -6.996455e-5
	-dw	 5.27e-9
	-Vm  -9.66  28.5  80.0 -22.9 1.89 0 1.09 0 0 1 # supcrt modified
	-HKF 0.524 0.31e2 7.71 -11.64e4 17.36 -43.29e4 7.22e5 1# paramètre OH- thermoddem
PHASES
Bloedite
	Na2Mg(SO4)2:4H2O  =  + 1.0000 Mg++ + 2.0000 Na+ + 2.0000 SO4-- + 4.0000 H2O
	-analytic	   3.56483519E+01	-6.58258168E-02	-5.4674363E+03
	-Vm 147
Epsomite
	MgSO4:7H2O  =  Mg+2 + SO4-2 + 7 H2O
	-analytic 4.08480390E+04	7.49950739E+00	-1.934676E+06	-1.521724E+04	9.39747409E+07
	-Vm 147
Hexahydrite
	MgSO4:6H2O  =  Mg+2 + SO4-2 + 6 H2O
	-analytic 5.43604369E+03	5.61493175E-01	-3.5461667E+05	-1.8930412E+03	2.38767356E+07
	-Vm 132
Kieserite
	MgSO4:H2O  =  Mg+2 + SO4-2 + H2O
	-analytic 5.39329145E+03	5.18715131E-01	-3.7474065E+05	-1.8602601E+03	2.78132757E+07
	-Vm 53.8
Mirabilite
	Na2SO4:10H2O  =  SO4-2 + 2 Na+ + 10 H2O
	-analytic     -4.86996660E+03	-1.50030705E+00	1.19561391E+05	1.98633627E+03	0  
	-Vm 216
Thenardite
	Na2SO4 = 2 Na+ + SO4-2
	-analytic -3.50862995E+03	-5.18430862E-01	1.99075358E+05	1.26574808E+03	-1.21641701E+07
	-Vm 52.9
3Na2SO4:MgSO4
	(Na2SO4)3:MgSO4 = 6.0 Na+ + 4.0 SO4-2 + Mg+2
	-analytic 10.92861242	-0.042607273	0	0	0 
Na2SO4:MgSO4:2.5H2O
	Na2SO4:MgSO4:2.5H2O = 2.0 Na+ + 2.0 SO4-2 + Mg+2 + 2.5 H2O
	-analytic 6.565963555	-0.027368065	0 0	0 
PITZER
-ALPHA
#                       ALPHA1         ALPHA2
Na+ SO4-2          2.00000000E+00  1.20000000E+01
Mg+2 SO4-2         1.40000000E+00  1.20000000E+01
#***********************************************************************
-B0
Na+                SO4-2           1.07355610E+02	4.79467200E-02	-2.03400000E-05	0.00000000E+00	-2.73649200E+03	-1.94190300E+01	-1.24300800E-01	0.00000000E+00	0.00000000E+00 
Mg+2		 SO4-2		 1.02452670E+02	4.74391400E-02	-2.11500000E-05	0.00000000E+00	-2.43227600E+03	-1.87306100E+01	-8.44100000E-07	1.44429440E+02	0.00000000E+00
-B1
Na+                SO4-2           1.01743540E+03	4.50315110E-01	-1.94940000E-04	0.00000000E+00	-2.61375530E+04	-1.83904640E+02	1.18375000E-04	8.51963305E+02	0.00000000E+00 
Mg+2		 SO4-2		 2.24359090E+02	-9.88745300E-02	1.43701000E-04	0.00000000E+00	-1.04948130E+04	-3.01661280E+01	-3.54952030E+00	1.10507136E+03	0.00000000E+00
-B2
Mg+2		 SO4-2		 7.58048471E+04	6.53134854E+01	-4.38893200E-02	0.00000000E+00	-1.05903980E+06	-1.54415430E+04	-1.36616860E-01	4.68387568E+04	0.00000000E+00
-C0
Na+                SO4-2           -1.35746780E-01	1.30021000E-04	0.00000000E+00	0.00000000E+00	3.00944336E+01	0.00000000E+00	3.86475370E-02	0.00000000E+00	0.00000000E+00
Mg+2		 SO4-2		 -9.83734020E+01	-7.00739600E-02	4.58738000E-05	0.00000000E+00	1.79158210E+03	1.93122662E+01	9.40941000E-06	-3.15973350E+02	0.00000000E+00
#***********************************************************************
-THETA
Na+                Mg+2                0.07
#***********************************************************************
-PSI
Na+		Mg+2		SO4-2		-0.0181193
-B0V
Na+		SO4-2	1.2861	-0.0106978	2.96022E-05	-2.70365E-08		
-B1V							
Na+		SO4-2	0.45969	-0.00131097				
Mg+2		SO4-2	7.42784	-0.0612133	0.000177378	-1.82737E-07		
-B2V							
Mg+2		SO4-2	2067.77	-23.9043	0.10311	-0.000196675	1.40527E-07	0.000118481

END
MEAN GAM
MgSO4
Na2SO4

END
 